Circuit: * C:\Users\jacob\OneDrive\Desktop\Desktop MIT\Research Folder\Steve Research Folder Master\ICRH HHFW Project\TWA_codes\Draft2.asc

Direct Newton iteration for .op point succeeded.

Date: Mon Feb 12 22:58:57 2024
Total elapsed time: 0.026 seconds.

tnom = 27
temp = 27
method = trap
totiter = 3
traniter = 0
tranpoints = 0
accept = 0
rejected = 0
matrix size = 24
fillins = 7
solver = Normal
Avg thread counts: 16.0/0.0/16.0/16.0
Matrix Compiler1:      78 opcodes
Matrix Compiler2: 1.78 KB object code size
