Circuit: * C:\Users\jacob\OneDrive\Desktop\Desktop MIT\Research Folder\Steve Research Folder Master\ICRH HHFW Project\TWA_codes\TWA_different_caps.asc

Direct Newton iteration for .op point succeeded.

Date: Wed Jul 10 18:40:54 2024
Total elapsed time: 0.034 seconds.

tnom = 27
temp = 27
method = trap
totiter = 3
traniter = 0
tranpoints = 0
accept = 0
rejected = 0
matrix size = 30
fillins = 9
solver = Normal
Avg thread counts: 16.0/0.0/16.0/16.0
Matrix Compiler1:     100 opcodes
Matrix Compiler2: 2.24 KB object code size
